testSystems/4vsc_system/dynawo/dynaflow_launcher/4vsc_system_NoTap.iidm
<?xml version="1.0" encoding="UTF-8"?>
<!--
    Copyright (c) 2022, RTE (http://www.rte-france.com)
    See AUTHORS.txt
    All rights reserved.
    This Source Code Form is subject to the terms of the Mozilla Public
    License, v. 2.0. If a copy of the MPL was not distributed with this
    file, you can obtain one at http://mozilla.org/MPL/2.0/.
    SPDX-License-Identifier: MPL-2.0

    This file is part of Dynawo, an hybrid C++/Modelica open source suite of
    simulation tools for power systems.
-->
<iidm:network xmlns:iidm="http://www.powsybl.org/schema/iidm/1_4" id="4-VSC-system" caseDate="2023-08-01T00:00:00+02:00" forecastDistance="0" sourceFormat="Stepss">
    <!-- Substation A: HVDC1 inverter station -->
    <iidm:substation id="_BUS__A_SS" name="BUS A_SS" country="FR" tso="RTE">
        <iidm:voltageLevel id="_BUS__A_VL" name="BUS A_VL" nominalV="400" topologyKind="BUS_BREAKER">
            <iidm:busBreakerTopology>
                <iidm:bus id="_BUS__A_TN" v="403.029080" angle="2.382680113"/> 
            </iidm:busBreakerTopology>
            <iidm:generator id="_GEN__1_HVDC" name="HVDC1" energySource="OTHER" minP="-1200" maxP="1200" voltageRegulatorOn="true" targetP="-1125.2" targetQ="-101.9" targetV="403.029080" bus="_BUS__A_TN" connectableBus="_BUS__A_TN" p="1125.2" q="101.9">
                <iidm:minMaxReactiveLimits minQ="-999" maxQ="360"/>
            </iidm:generator>
        </iidm:voltageLevel>
        <iidm:voltageLevel id="_BUS__A2_VL" name="BUS A2_VL" nominalV="225" topologyKind="BUS_BREAKER">
            <iidm:busBreakerTopology>
                <iidm:bus id="_BUS__A2_TN" v="232.17003" angle="9.103813496"/>
            </iidm:busBreakerTopology>
        </iidm:voltageLevel>
        <iidm:twoWindingsTransformer id="_Tr__A2-A" name="A2-A" r="0.333333333" x="10" g="0.0" b="0.0" ratedU1="225" ratedU2="400" bus1="_BUS__A2_TN" connectableBus1="_BUS__A2_TN" voltageLevelId1="_BUS__A2_VL" bus2="_BUS__A_TN" connectableBus2="_BUS__A_TN" voltageLevelId2="_BUS__A_VL" p1="1961.9" q1="450" p2="-1954" q2="-212.2">
        </iidm:twoWindingsTransformer>
    </iidm:substation>

    <!-- Substation B: HVDC2 inverter station -->
    <iidm:substation id="_BUS__B_SS" name="BUS B_SS" country="FR" tso="RTE">
        <iidm:voltageLevel id="_BUS__B_VL" name="BUS B_VL" nominalV="400" topologyKind="BUS_BREAKER">
            <iidm:busBreakerTopology>
                <iidm:bus id="_BUS__B_TN" v="402.166960" angle="2.063309084"/> 
            </iidm:busBreakerTopology>
            <iidm:generator id="_GEN__2_HVDC" name="HVDC2" energySource="OTHER" minP="-1700" maxP="1700" voltageRegulatorOn="true" targetP="-1607.5" targetQ="346.2" targetV="402.166960" bus="_BUS__B_TN" connectableBus="_BUS__B_TN" p="1607.5" q="-346.2">
                <iidm:minMaxReactiveLimits minQ="-999" maxQ="504"/>
            </iidm:generator>
        </iidm:voltageLevel>
        <iidm:voltageLevel id="_BUS__B2_VL" name="BUS B2_VL" nominalV="225" topologyKind="BUS_BREAKER">
            <iidm:busBreakerTopology>
                <iidm:bus id="_BUS__B2_TN" v="223.3239075" angle="9.119518843"/>
            </iidm:busBreakerTopology>
        </iidm:voltageLevel>
        <iidm:twoWindingsTransformer id="_Tr__B2-B" name="B2-B" r="0.333333333" x="10" g="0.0" b="0.0" ratedU1="225" ratedU2="400" bus1="_BUS__B2_TN" connectableBus1="_BUS__B2_TN" voltageLevelId1="_BUS__B2_VL" bus2="_BUS__B_TN" connectableBus2="_BUS__B_TN" voltageLevelId2="_BUS__B_VL" p1="1956.5" q1="-148.6" p2="-1948.3" q2="-392.9">
        </iidm:twoWindingsTransformer>
    </iidm:substation>
      
    <!-- Substation C: Slack -->
    <iidm:substation id="_BUS__C_SS" name="BUS C_SS" country="FR" tso="RTE">
        <iidm:voltageLevel id="_BUS__C_VL" name="BUS C_VL" nominalV="400" topologyKind="BUS_BREAKER">
            <iidm:busBreakerTopology>
                <iidm:bus id="_BUS__C_TN" v="400" angle="0.0"/>
            </iidm:busBreakerTopology>
            <iidm:generator id="_GEN__3_EQUIV" name="Slack" energySource="OTHER" minP="-9999" maxP="9999" voltageRegulatorOn="true" targetP="1.5" targetQ="-0.2" targetV="400" bus="_BUS__C_TN" connectableBus="_BUS__C_TN" p="-1.5" q="0.2">
                <iidm:minMaxReactiveLimits minQ="-9999" maxQ="9999"/>
            </iidm:generator>
             <iidm:load id="_LOAD__1" name="LOAD1" loadType="UNDEFINED" p0="1168.7" q0="177.6" bus="_BUS__C_TN" connectableBus="_BUS__C_TN" p="1168.7" q="177.6"/>
        </iidm:voltageLevel>
    </iidm:substation>

    <!-- Substation E: WP1 -->
    <iidm:substation id="_BUS__E_SS" name="BUS E_SS" country="FR" tso="RTE">
        <iidm:voltageLevel id="_BUS__E_VL" name="BUS E_VL" nominalV="225" topologyKind="BUS_BREAKER">
            <iidm:busBreakerTopology>
                <iidm:bus id="_BUS__E_TN" v="235.6998975" angle="10.82446191"/> 
            </iidm:busBreakerTopology>
            <iidm:generator id="_GEN__4_WP1" name="WP1" energySource="OTHER" minP="-2400" maxP="2400" voltageRegulatorOn="false" targetP="1991.9" targetQ="-146.6" targetV="225" bus="_BUS__E_TN" connectableBus="_BUS__E_TN" p="-1991.9" q="146.6">
                <iidm:minMaxReactiveLimits minQ="-999" maxQ="720"/>
            </iidm:generator>
            <iidm:shunt id="_SHUNT1__E_SS" name="SHUNT E_SS" sectionCount="1" voltageRegulatorOn="false" bus="_BUS__E_TN" connectableBus="_BUS__E_TN" q="-329.2">
                <iidm:shuntLinearModel bPerSection="-0.005925926" maximumSectionCount="1"/>
            </iidm:shunt>
        </iidm:voltageLevel>
    </iidm:substation> 
    
    <!-- Substation F: WP2 -->
    <iidm:substation id="_BUS__F_SS" name="BUS F_SS" country="FR" tso="RTE">
        <iidm:voltageLevel id="_BUS__F_VL" name="BUS F_VL" nominalV="225" topologyKind="BUS_BREAKER">
            <iidm:busBreakerTopology>
                <iidm:bus id="_BUS__F_TN" v="224.9394975" angle="11.2583617"/> 
            </iidm:busBreakerTopology>
            <iidm:generator id="_GEN__5_WP2" name="WP2" energySource="OTHER" minP="-2400" maxP="2400" voltageRegulatorOn="true" targetP="1991.7" targetQ="-783.8" targetV="224.9394975" bus="_BUS__F_TN" connectableBus="_BUS__F_TN" p="-1991.7" q="783.3">
                <iidm:minMaxReactiveLimits minQ="-999" maxQ="720"/>
            </iidm:generator>
            <iidm:shunt id="SHUNT F_SS" name="SHUNT F_SS" sectionCount="1" voltageRegulatorOn="false" bus="_BUS__F_TN" connectableBus="_BUS__F_TN" q="-199.9">
                <iidm:shuntLinearModel bPerSection="-0.003950617" maximumSectionCount="1"/>
            </iidm:shunt>
        </iidm:voltageLevel>
    </iidm:substation> 

    <!-- Transmission lines -->
    <!-- A-B#1 -->
    <iidm:line id="_Line1__BUS__A-_BUS__B" name="A-B_1" r="0.51" x="10.24" g1="0.0" b1="0.000048" g2="0.0" b2="0.000048" bus1="_BUS__A_TN" connectableBus1="_BUS__A_TN" voltageLevelId1="_BUS__A_VL" bus2="_BUS__B_TN" connectableBus2="_BUS__B_TN" voltageLevelId2="_BUS__B_VL" p1="89.7" q1="21.9" p2="-89.7" q2="-36.9"/>
    <!-- A-B#2 -->
    <iidm:line id="_Line2__BUS__A-_BUS__B" name="A-B_2" r="0.51" x="10.24" g1="0.0" b1="0.000048" g2="0.0" b2="0.000048" bus1="_BUS__A_TN" connectableBus1="_BUS__A_TN" voltageLevelId1="_BUS__A_VL" bus2="_BUS__B_TN" connectableBus2="_BUS__B_TN" voltageLevelId2="_BUS__B_VL" p1="89.7" q1="21.9" p2="-89.7" q2="-36.9"/>
    <!-- A-C#1 -->
    <iidm:line id="_Line3__BUS__A-_BUS__C" name="A-C_1" r="1.04" x="20.8" g1="0.0" b1="0.000098" g2="0.0" b2="0.000098" bus1="_BUS__A_TN" connectableBus1="_BUS__A_TN" voltageLevelId1="_BUS__A_VL" bus2="_BUS__C_TN" connectableBus2="_BUS__C_TN" voltageLevelId2="_BUS__C_VL" p1="324.7" q1="33.2" p2="-324" q2="-51"/>
    <!-- A-C#2 -->
    <iidm:line id="_Line4__BUS__A-_BUS__C" name="A-C_2" r="1.04" x="20.8" g1="0.0" b1="0.000098" g2="0.0" b2="0.000098" bus1="_BUS__A_TN" connectableBus1="_BUS__A_TN" voltageLevelId1="_BUS__A_VL" bus2="_BUS__C_TN" connectableBus2="_BUS__C_TN" voltageLevelId2="_BUS__C_VL" p1="324.7" q1="33.2" p2="-324" q2="-51"/>
    <!-- B-C#1 -->
    <iidm:line id="_Line5__BUS__B-_BUS__C" name="B-C_1" r="1.12" x="22.4" g1="0.0" b1="0.000105" g2="0.0" b2="0.000105" bus1="_BUS__B_TN" connectableBus1="_BUS__B_TN" voltageLevelId1="_BUS__B_VL" bus2="_BUS__C_TN" connectableBus2="_BUS__C_TN" voltageLevelId2="_BUS__C_VL" p1="260.1" q1="13.6" p2="-259.6" q2="-37.9"/>
    <!-- B-C#2 -->
    <iidm:line id="_Line6__BUS__B-_BUS__C" name="B-C_2" r="1.12" x="22.4" g1="0.0" b1="0.000105" g2="0.0" b2="0.000105" bus1="_BUS__B_TN" connectableBus1="_BUS__B_TN" voltageLevelId1="_BUS__B_VL" bus2="_BUS__C_TN" connectableBus2="_BUS__C_TN" voltageLevelId2="_BUS__C_VL" p1="260.1" q1="13.6" p2="-259.6" q2="-37.9"/>
    <!-- A2-E -->
    <iidm:line id="_Line7__BUS__A2-_BUS__E" name="A2-E" r="0.42" x="0.83" g1="0.0" b1="0.009" g2="0.0" b2="0.009" bus1="_BUS__A2_TN" connectableBus1="_BUS__A2_TN" voltageLevelId1="_BUS__A2_VL" bus2="_BUS__E_TN" connectableBus2="_BUS__E_TN" voltageLevelId2="_BUS__E_VL" p1="-1961.9" q1="-450" p2="1991.9" q2="-475.8"/>
    <!-- B2-F -->
    <iidm:line id="_Line8__BUS__B2-_BUS__F" name="B2-F" r="0.42" x="0.83" g1="0.0" b1="0.009" g2="0.0" b2="0.009" bus1="_BUS__B2_TN" connectableBus1="_BUS__B2_TN" voltageLevelId1="_BUS__B2_VL" bus2="_BUS__F_TN" connectableBus2="_BUS__F_TN" voltageLevelId2="_BUS__F_VL" p1="-1956.5" q1="148.6" p2="1991.7" q2="-983.2"/>

    <iidm:extension id="_BUS__C_VL">
      <iidm:slackTerminal id="_GEN__3_EQUIV" />
    </iidm:extension>

</iidm:network>